LTspice 24.1.9 for Windows
Circuit: Z:\home\jthro\Projects\bluesat\owr-502\src\main_power_hub_elec\sim\full_sim.net
Start Time: Sat Aug 30 12:13:16 2025
solver = Normal
Maximum thread count: 16
tnom = 27
temp = 27
method = trap
Direct Newton iteration for .op point succeeded.
Total elapsed time: 0.189 seconds.

Files loaded:
Z:\home\jthro\Projects\bluesat\owr-502\src\main_power_hub_elec\sim\full_sim.net
C:\users\jthro\AppData\Local\LTspice\lib\cmp\standard.dio
C:\users\jthro\AppData\Local\LTspice\lib\sub\Contrib\Toshiba\LVMOS\SSM3K329R_G0_00_enc.lib

