LTspice 24.1.9 for Windows
Circuit: Z:\home\jthro\Projects\bluesat\owr-502\src\main_power_hub_elec\sim\driver.net
Start Time: Mon Sep  1 16:13:00 2025
solver = Normal
Maximum thread count: 16
tnom = 27
temp = 27
method = trap
Direct Newton iteration for .op point succeeded.
Total elapsed time: 0.126 seconds.

Files loaded:
Z:\home\jthro\Projects\bluesat\owr-502\src\main_power_hub_elec\sim\driver.net
C:\users\jthro\AppData\Local\LTspice\lib\cmp\standard.bjt

